/*--------------------------------*- C++ -*----------------------------------*\
| =========                 |                                                 |
| \\      /  F ield         | OpenFOAM: The Open Source CFD Toolbox           |
|  \\    /   O peration     | Version:  2.1.1                                 |
|   \\  /    A nd           | Web:      www.OpenFOAM.org                      |
|    \\/     M anipulation  |                                                 |
\*---------------------------------------------------------------------------*/
FoamFile
{
    version     2.0;
    format      ascii;
    class       volVectorField;
    object      U;
}
// * * * * * * * * * * * * * * * * * * * * * * * * * * * * * * * * * * * * * //

dimensions      [0 1 -1 0 0 0 0];

internalField   uniform (0 0 0);

boundaryField
{
  inlet
    {
        type            fixedValue;
        value           uniform (4 0 0);
	}
  
  /*inlet
     {
       type   groovyBC;
       valueExpression "vector(pow(time(),2),0,0)";
       value  uniform (0 0 0);
       }*/

    outlet
    {
      type            fixedValue;
      value           uniform (5 0 0);
      /* type groovyBC;
      valueExpression "vector(pow(time(),2)/exp(time()),0,0)";
      value uniform (0 0 0);*/
    }

    topAndBottom
    {
      type empty;
    }

    frontAndBack
    {
        type            empty;
    }
}

// ************************************************************************* //
