/*--------------------------------*- C++ -*----------------------------------*\
| =========                 |                                                 |
| \\      /  F ield         | OpenFOAM Extend Project: Open source CFD        |
|  \\    /   O peration     | Version:  1.6-ext                               |
|   \\  /    A nd           | Web:      www.extend-project.de                 |
|    \\/     M anipulation  |                                                 |
\*---------------------------------------------------------------------------*/
FoamFile
{
    version     2.0;
    format      ascii;
    class       polyBoundaryMesh;
    location    "constant/polyMesh";
    object      boundary;
}
// * * * * * * * * * * * * * * * * * * * * * * * * * * * * * * * * * * * * * //

5
(
    frontAndBack
    {
        type            empty;
        nFaces          300;
        startFace       149;
    }
    inlet
    {
        type            patch;
        nFaces          0;
        startFace       449;
    }
    outlet
    {
        type            patch;
        nFaces          1;
        startFace       449;
    }
    topAndBottom
    {
        type            empty;
        nFaces          300;
        startFace       450;
    }
    procBoundary1to0
    {
        type            patch;
        nFaces          1;
        startFace       750;
        myProcNo        1;
        neighbProcNo    0;
    }
)

// ************************************************************************* //
