/*--------------------------------*- C++ -*----------------------------------*\
| =========                 |                                                 |
| \\      /  F ield         | OpenFOAM: The Open Source CFD Toolbox           |
|  \\    /   O peration     | Version:  2.1.1                                 |
|   \\  /    A nd           | Web:      www.OpenFOAM.org                      |
|    \\/     M anipulation  |                                                 |
\*---------------------------------------------------------------------------*/
FoamFile
{
    version     2.0;
    format      ascii;
    class       dictionary;
    location    "system";
    object      controlDict;
}
// * * * * * * * * * * * * * * * * * * * * * * * * * * * * * * * * * * * * * //

libs ( "libMyBCs.so" ) ;

//application     waveFoam;

startFrom       latestTime;

startTime       0;

stopAt          endTime;

endTime         250; //10;

deltaT          1; //0.1;

writeControl    timeStep; //runTime;  //timeStep;

writeInterval   2; //0.1;  //0.02;  //50;

purgeWrite      0;

writeFormat     ascii;

writePrecision  6;

writeCompression compressed;

timeFormat      general;

timePrecision   6;

runTimeModifiable true;  //yes;


// ************************************************************************* //
