/*--------------------------------*- C++ -*----------------------------------*\
| =========                 |                                                 |
| \\      /  F ield         | OpenFOAM: The Open Source CFD Toolbox           |
|  \\    /   O peration     | Version:  2.1.1                                 |
|   \\  /    A nd           | Web:      www.OpenFOAM.org                      |
|    \\/     M anipulation  |                                                 |
\*---------------------------------------------------------------------------*/
FoamFile
{
    version     2.0;
    format      ascii;
    class       dictionary;
    location    "system";
    object      fvSchemes;
}
// * * * * * * * * * * * * * * * * * * * * * * * * * * * * * * * * * * * * * //

//d2dt2Schemes
ddtSchemes
{
  //default         Euler;
 default    steadyState;
}

gradSchemes
{
    default         Gauss linear;
}

divSchemes
{
    default         none;
    // div(phi,T)      Gauss limitedLinear 1;
}

laplacianSchemes
{
    default         none;
    laplacian(U) Gauss linear fourth; //linear uncorrected; 
    //    laplacian(U) Gauss linear corrected;
    // laplacian(DT,T) Gauss linear corrected;
}

interpolationSchemes
{
    default         linear;
}

snGradSchemes
{
 default        fourth; // uncorrected; //corrected;
}

fluxRequired
{
    default         no;
    U               ;
}


// ************************************************************************* //
